*Heading
** Job name: Job-1_potato_in_pot Model name: Model-1
** Generated by: Abaqus/CAE Student Edition 2018
*Preprint, echo=NO, model=NO, history=NO, contact=NO
**
** PARTS
**
*Part, name="orphan mesh"
*Node
      1,  -33.5753288,  -23.1299591
      2,  -31.2597904,  -23.1299591
      3,  -28.9442501,  -23.1299591
      4,  -26.6287098,  -23.1299591
      5,  -24.3131695,  -23.1299591
      6,  -21.9976292,  -23.1299591
      7,  -19.6820908,  -23.1299591
      8,  -17.3665504,  -23.1299591
      9,  -15.0510101,  -23.1299591
     10,  -12.7354698,  -23.1299591
     11,  -10.4199305,  -23.1299591
     12,  -8.10439014,  -23.1299591
     13,  -5.78884983,  -23.1299591
     14,  -3.47330999,  -23.1299591
     15,  -1.15777004,  -23.1299591
     16,   1.15777004,  -23.1299591
     17,   3.47330999,  -23.1299591
     18,   5.78884983,  -23.1299591
     19,   8.10439014,  -23.1299591
     20,   10.4199305,  -23.1299591
** ... 610 like lines cut
*Element, type=CPS4
  1,   1,   2,  32,  31
  2,   2,   3,  33,  32
  3,   3,   4,  34,  33
  4,   4,   5,  35,  34
  5,   5,   6,  36,  35
  6,   6,   7,  37,  36
  7,   7,   8,  38,  37
  8,   8,   9,  39,  38
  9,   9,  10,  40,  39
 10,  10,  11,  41,  40
 11,  11,  12,  42,  41
 12,  12,  13,  43,  42
 13,  13,  14,  44,  43
 14,  14,  15,  45,  44
 15,  15,  16,  46,  45
 16,  16,  17,  47,  46
 17,  17,  18,  48,  47
 18,  18,  19,  49,  48
 19,  19,  20,  50,  49
 20,  20,  21,  51,  50
** ... 560 like lines cut
*Elset, elset=Set-1_alpha_0
   1,   2,   3,   4,   5,   6,   7,   8,   9,  10,  11,  12,  13,  14,  15,  16
  17,  18,  19,  20,  21,  22,  23,  24,  25,  26,  27,  28,  29,  30,  31,  32
  42,  43,  44,  45,  46,  47,  48,  49,  50,  51,  52,  53,  54,  55,  56,  57
  58,  59,  74,  75,  76,  77,  78,  79,  80,  81,  82,  83,  84,  85,  86,  87
  88, 105, 106, 107, 108, 109, 110, 111, 112, 113, 114, 115, 116, 117, 136, 137
 138, 139, 140, 141, 142, 143, 144, 145, 146, 158, 159, 160, 167, 168, 169, 170
 171, 172, 173, 174, 175, 185, 186, 187, 188, 189, 190, 191, 197, 198, 199, 200
 201, 202, 203, 204, 213, 214, 215, 216, 217, 218, 219, 220, 221, 227, 228, 229
 230, 231, 232, 233, 234, 242, 243, 244, 245, 246, 247, 248, 249, 250, 257, 258
 259, 260, 261, 262, 263, 264, 271, 272, 273, 274, 275, 276, 277, 278, 279, 287
 288, 289, 290, 291, 292, 293, 294, 300, 301, 302, 303, 304, 305, 306, 307, 308
 317, 318, 319, 320, 321, 322, 323, 324, 330, 331, 332, 333, 334, 335, 336, 337
 338, 347, 348, 349, 350, 351, 352, 353, 354, 360, 361, 362, 363, 364, 365, 366
 367, 368, 369, 370, 371, 372, 377, 378, 379, 380, 381, 382, 383, 384, 390, 391
 392, 393, 394, 395, 396, 397, 398, 399, 400, 401, 402, 406, 407, 408, 409, 410
 411, 412, 413, 414, 421, 422, 423, 424, 425, 426, 427, 428, 429, 430, 431, 435
 436, 437, 438, 439, 440, 441, 442, 443, 444, 445, 454, 455, 456, 457, 458, 459
 460, 464, 465, 466, 467, 468, 469, 470, 471, 472, 473, 474, 475, 476, 493, 494
 495, 496, 497, 498, 499, 500, 501, 502, 503, 504, 505, 506, 507, 522, 523, 524
 525, 526, 527, 528, 529, 530, 531, 532, 533, 534, 535, 536, 537, 538, 539, 549
 550, 551, 552, 553, 554, 555, 556, 557, 558, 559, 560, 561, 562, 563, 564, 565
 566, 567, 568, 569, 570, 571, 572, 573, 574, 575, 576, 577, 578, 579, 580
*Elset, elset=Set-1_alpha_1
  33,  34,  35,  36,  37,  38,  39,  40,  41,  60,  61,  62,  63,  64,  65,  66
  67,  68,  69,  70,  71,  72,  73,  89,  90,  91,  92,  93,  94,  95,  96,  97
  98,  99, 100, 101, 102, 103, 104, 118, 119, 120, 121, 122, 123, 124, 125, 126
 127, 128, 129, 130, 131, 132, 133, 134, 135, 147, 148, 149, 150, 151, 152, 153
 154, 155, 156, 157, 161, 162, 163, 164, 165, 166, 176, 177, 178, 179, 180, 181
 182, 183, 184, 192, 193, 194, 195, 196, 205, 206, 207, 208, 209, 210, 211, 212
 222, 223, 224, 225, 226, 235, 236, 237, 238, 239, 240, 241, 251, 252, 253, 254
 255, 256, 265, 266, 267, 268, 269, 270, 280, 281, 282, 283, 284, 285, 286, 295
 296, 297, 298, 299, 309, 310, 311, 312, 313, 314, 315, 316, 325, 326, 327, 328
 329, 339, 340, 341, 342, 343, 344, 345, 346, 355, 356, 357, 358, 359, 373, 374
 375, 376, 385, 386, 387, 388, 389, 403, 404, 405, 415, 416, 417, 418, 419, 420
 432, 433, 434, 446, 447, 448, 449, 450, 451, 452, 453, 461, 462, 463, 477, 478
 479, 480, 481, 482, 483, 484, 485, 486, 487, 488, 489, 490, 491, 492, 508, 509
 510, 511, 512, 513, 514, 515, 516, 517, 518, 519, 520, 521, 540, 541, 542, 543
 544, 545, 546, 547, 548
*Nset, nset=Set-3
 367, 397, 398, 428, 429, 459, 460, 461, 491, 492, 493, 523, 524, 525, 555
*Nset, nset=Set-4
 106, 107, 108, 138, 139, 140, 170, 171, 172, 202, 203, 233, 234
** Section: Section-1_alpha_0
*Solid Section, elset=Set-1_alpha_0, material=Material-1_alpha_0
0.1,
** Section: Section-2_alpha_1
*Solid Section, elset=Set-1_alpha_1, material=Material-2_alph_1
0.1,
*End Part
**  
**
** ASSEMBLY
**
*Assembly, name=Assembly
**  
*Instance, name="orphan mesh-1", part="orphan mesh"
*End Instance
**  
*End Assembly
** 
** MATERIALS
** 
*Material, name=Material-1_alpha_0
*Elastic
1.,0.
*Material, name=Material-2_alph_1
*Elastic
 2e+12, 0.3
** ----------------------------------------------------------------
** 
** STEP: Step-1
** 
*Step, name=Step-1, nlgeom=NO
*Static
1., 1., 1e-05, 1.
** 
** BOUNDARY CONDITIONS
** 
** Name: BC-1 Type: Displacement/Rotation
*Boundary
"orphan mesh-1".Set-3, 1, 1
"orphan mesh-1".Set-3, 2, 2
"orphan mesh-1".Set-3, 6, 6
** 
** LOADS
** 
** Name: Load-1   Type: Concentrated force
*Cload
"orphan mesh-1".Set-4, 1, 100.
** 
** OUTPUT REQUESTS
** 
*Restart, write, frequency=0
** 
** FIELD OUTPUT: F-Output-1
** 
*Output, field, variable=PRESELECT
** 
** HISTORY OUTPUT: H-Output-1
** 
*Output, history, variable=PRESELECT
*End Step
