*Heading
** Job name: Job-1 Model name: Model-1
** Generated by: Abaqus/CAE Student Edition 2018
*Preprint, echo=NO, model=NO, history=NO, contact=NO
**
** PARTS
**
*Part, name="orphan mesh"
*Node
      1,           0.,           0.
      2,           5.,           0.
      3,          10.,           0.
      4,          15.,           0.
      5,          20.,           0.
      6,          25.,           0.
      7,          30.,           0.
      8,          35.,           0.
      9,          40.,           0.
     10,          45.,           0.
     11,          50.,           0.
     12,          55.,           0.
     13,          60.,           0.
     14,          65.,           0.
     15,          70.,           0.
     16,          75.,           0.
     17,          80.,           0.
     18,          85.,           0.
     19,          90.,           0.
     20,          95.,           0.
** ... 631 like lines cut
*Element, type=CPS4
  1,   1,   2,  33,  32
  2,   2,   3,  34,  33
  3,   3,   4,  35,  34
  4,   4,   5,  36,  35
  5,   5,   6,  37,  36
  6,   6,   7,  38,  37
  7,   7,   8,  39,  38
  8,   8,   9,  40,  39
  9,   9,  10,  41,  40
 10,  10,  11,  42,  41
 11,  11,  12,  43,  42
 12,  12,  13,  44,  43
 13,  13,  14,  45,  44
 14,  14,  15,  46,  45
 15,  15,  16,  47,  46
 16,  16,  17,  48,  47
 17,  17,  18,  49,  48
 18,  18,  19,  50,  49
 19,  19,  20,  51,  50
 20,  20,  21,  52,  51
** ... 580 like lines cut
*Elset, elset=Set-1_alpha_0
 161, 162, 163, 164, 165, 166, 167, 190, 191, 192, 193, 194, 195, 196, 197, 198
 199, 200, 219, 220, 221, 222, 223, 224, 225, 226, 227, 228, 229, 230, 231, 249
 250, 251, 252, 253, 254, 255, 256, 257, 258, 259, 260, 261, 262, 279, 280, 281
 282, 283, 284, 285, 286, 287, 288, 289, 290, 291, 292, 309, 310, 311, 312, 313
 314, 315, 316, 317, 318, 319, 320, 321, 322, 344, 345, 346, 347, 348, 349, 350
 351, 352, 353, 375, 376, 377, 378, 379, 380, 381, 382, 383, 405, 406, 407, 408
 409, 410, 411, 412, 413, 435, 436, 437, 438, 439, 440, 441, 442, 443, 465, 466
 467, 468, 469, 470, 471, 472, 496, 497, 498, 499, 500, 501
*Elset, elset=Set-1_alpha_1
   1,   2,   3,   4,   5,   6,   7,   8,   9,  10,  11,  12,  13,  14,  15,  16
  17,  18,  19,  20,  21,  22,  23,  24,  25,  26,  27,  28,  29,  30,  31,  32
  33,  34,  35,  36,  37,  38,  39,  40,  41,  42,  43,  44,  45,  46,  47,  48
  49,  50,  51,  52,  53,  54,  55,  56,  57,  58,  59,  60,  61,  62,  63,  64
  65,  66,  67,  68,  69,  70,  71,  72,  73,  74,  75,  76,  77,  78,  79,  80
  81,  82,  83,  84,  85,  86,  87,  88,  89,  90,  91,  92,  93,  94,  95,  96
  97,  98,  99, 100, 101, 102, 103, 104, 105, 106, 107, 108, 109, 110, 111, 112
 113, 114, 115, 116, 117, 118, 119, 120, 121, 122, 123, 124, 125, 126, 127, 128
 129, 130, 131, 132, 133, 134, 135, 136, 137, 138, 139, 140, 141, 142, 143, 144
 145, 146, 147, 148, 149, 150, 151, 152, 153, 154, 155, 156, 157, 158, 159, 160
 168, 169, 170, 171, 172, 173, 174, 175, 176, 177, 178, 179, 180, 181, 182, 183
 184, 185, 186, 187, 188, 189, 201, 202, 203, 204, 205, 206, 207, 208, 209, 210
 211, 212, 213, 214, 215, 216, 217, 218, 232, 233, 234, 235, 236, 237, 238, 239
 240, 241, 242, 243, 244, 245, 246, 247, 248, 263, 264, 265, 266, 267, 268, 269
 270, 271, 272, 273, 274, 275, 276, 277, 278, 293, 294, 295, 296, 297, 298, 299
 300, 301, 302, 303, 304, 305, 306, 307, 308, 323, 324, 325, 326, 327, 328, 329
 330, 331, 332, 333, 334, 335, 336, 337, 338, 339, 340, 341, 342, 343, 354, 355
 356, 357, 358, 359, 360, 361, 362, 363, 364, 365, 366, 367, 368, 369, 370, 371
 372, 373, 374, 384, 385, 386, 387, 388, 389, 390, 391, 392, 393, 394, 395, 396
 397, 398, 399, 400, 401, 402, 403, 404, 414, 415, 416, 417, 418, 419, 420, 421
** ... 10 like lines cut
** Section: Section-2_alpha_1
*Solid Section, elset=Set-1_alpha_1, material=Material-2_alpha_1
0.1,
** Section: Section-1_alpha_0
*Solid Section, elset=Set-1_alpha_0, material=Material-1_alpha_0
0.1,
*End Part
**  
**
** ASSEMBLY
**
*Assembly, name=Assembly
**  
*Instance, name="orphan mesh-1", part="orphan mesh"
*End Instance
**  
*Nset, nset=Set-1, instance="orphan mesh-1", generate
   1,  621,   31
*Nset, nset=Set-2, instance="orphan mesh-1"
 651,
*Elset, elset=_Surf-1_S2, internal, instance="orphan mesh-1", generate
  30,  600,   30
*Surface, type=ELEMENT, name=Surf-1
_Surf-1_S2, S2
*End Assembly
** 
** MATERIALS
** 
*Material, name=Material-1_alpha_0
*Elastic
1., 0.3
*Material, name=Material-2_alpha_1
*Elastic
 2e+10, 0.3
** ----------------------------------------------------------------
** 
** STEP: Step-1
** 
*Step, name=Step-1, nlgeom=NO
*Static
1., 1., 1e-05, 1.
** 
** BOUNDARY CONDITIONS
** 
** Name: BC-1 Type: Displacement/Rotation
*Boundary
Set-1, 1, 1
Set-1, 2, 2
Set-1, 6, 6
** 
** LOADS
** 
** Name: Load-1   Type: Concentrated force
*Cload
Set-2, 1, 1000.
Set-2, 2, 1000.
** Name: Load-2   Type: Pressure
*Dsload
Surf-1, P, -1000.
** 
** OUTPUT REQUESTS
** 
*Restart, write, frequency=0
** 
** FIELD OUTPUT: F-Output-1
** 
*Output, field, variable=PRESELECT
** 
** HISTORY OUTPUT: H-Output-1
** 
*Output, history, variable=PRESELECT
*End Step
