*Heading
** Job name: Job-2 Model name: Model-2
** Generated by: Abaqus/CAE Student Edition 2018
*Preprint, echo=NO, model=NO, history=NO, contact=NO
**
** PARTS
**
*Part, name=Part-1
*Node
      1,   17.6969509,   8.00168133
      2,   20.2382107,   9.63239861
      3,   21.2114754,   10.7967186
      4,   22.3656731,   13.5868931
      5,   22.4993534,   15.0985184
      6,   21.8527374,   18.0479469
      7,   21.0989151,   19.3650017
      8,   18.8832817,   21.4163952
      9,   17.5121784,   22.0667496
     10,   14.5217724,   22.4847374
     11,   13.0248947,   22.2352581
     12,   10.3316956,   20.8700027
     13,   9.24563313,   19.8101215
     14,   7.81508017,   17.1510296
     15,   7.52915668,   15.6606846
     16,   7.87406588,   12.6609707
     17,   8.49077702,   11.2744102
     18,   10.4875069,   9.00938988
     19,    11.785779,   8.22366047
     20,   14.7185555,    7.5052824
** ... 402 like lines cut
*Element, type=CPS3
 1, 412, 419, 386
 2, 410, 320, 288
 3, 307, 306, 415
 4, 312, 293, 277
 5, 409, 318, 207
 6, 315, 382, 340
 7, 394, 365, 377
 8, 402, 175, 301
 9, 421, 352, 340
*Element, type=CPS4
 10, 224, 219, 187, 198
 11, 139, 138, 252, 253
 12, 194, 229, 409, 200
 13, 267, 243, 183, 190
 14, 303, 357, 232, 158
 15, 327, 420, 281, 416
 16,  17, 191, 190,  34
 17, 197, 211, 193,  15
 18, 193, 211, 415, 210
 19, 320, 270, 313, 288
 20, 201,  31, 186, 294
 21, 344, 339, 273, 271
 22, 417, 325, 400, 287
 23,  11, 196, 186,  31
 24, 316, 304, 300, 299
 25, 335, 378, 373, 331
 26, 317, 334, 261, 262
 27, 202, 185, 216, 264
 28, 217, 216, 185, 203
 29, 199, 184, 218, 222
** ... 342 like lines cut
*Nset, nset=Set-4, generate
   1,  422,    1
*Elset, elset=Set-4, generate
   1,  371,    1
** Section: Section-1
*Solid Section, elset=Set-4, material=Material-1
0.1,
*End Part
**  
**
** ASSEMBLY
**
*Assembly, name=Assembly
**  
*Instance, name=Part-1-1, part=Part-1
*End Instance
**  
*Nset, nset=Set-1, instance=Part-1-1
  22,  23,  24,  25,  55,  56,  57,  58,  59,  60,  61,  62,  63,  64,  65,  66
  67,  68,  69,  70,  71,  72,  73,  93,  94,  95,  96,  97,  98,  99, 100, 101
 102, 103, 104, 105, 106, 107, 108, 109, 110, 111
*Elset, elset=Set-1, instance=Part-1-1
  42,  43,  58,  61,  64,  65,  66,  67,  68,  69,  70,  71,  72,  73,  74,  75
  76,  77,  78,  93,  97,  98,  99, 100, 101, 102, 103, 104, 105, 106, 107, 108
 121, 124, 128, 138, 159, 160, 165, 173
*Elset, elset=_Surf-1_S2, internal, instance=Part-1-1
  61,  62,  80,  82,  83,  88,  89,  90,  91, 143
*Elset, elset=_Surf-1_S1, internal, instance=Part-1-1
 77,
*Elset, elset=_Surf-1_S4, internal, instance=Part-1-1
  81,  84,  85,  86,  87,  92, 147, 156, 176
*Surface, type=ELEMENT, name=Surf-1
_Surf-1_S2, S2
_Surf-1_S1, S1
_Surf-1_S4, S4
*End Assembly
** 
** MATERIALS
** 
*Material, name=Material-1
*Elastic
 2e+11, 0.3
** ----------------------------------------------------------------
** 
** STEP: Step-1
** 
*Step, name=Step-1, nlgeom=NO
*Static
1., 1., 1e-05, 1.
** 
** BOUNDARY CONDITIONS
** 
** Name: BC-1 Type: Displacement/Rotation
*Boundary
Set-1, 1, 1
Set-1, 2, 2
Set-1, 6, 6
** 
** LOADS
** 
** Name: Load-1   Type: Pressure
*Dsload
Surf-1, P, 1000.
** 
** OUTPUT REQUESTS
** 
*Restart, write, frequency=0
** 
** FIELD OUTPUT: F-Output-1
** 
*Output, field, variable=PRESELECT
** 
** HISTORY OUTPUT: H-Output-1
** 
*Output, history, variable=PRESELECT
*End Step
