*Heading
** Job name: Job-3 Model name: Model-1
** Generated by: Abaqus/CAE Student Edition 2018
*Preprint, echo=NO, model=NO, history=NO, contact=NO
**
** PARTS
**
*Part, name="orphan mesh"
*Node
      1,           0.,           0.
      2,          1.5,           0.
      3,           3.,           0.
      4,          4.5,           0.
      5,           6.,           0.
      6,          7.5,           0.
      7,           9.,           0.
      8,         10.5,           0.
      9,          12.,           0.
     10,         13.5,           0.
     11,          15.,           0.
     12,         16.5,           0.
     13,          18.,           0.
     14,         19.5,           0.
     15,          21.,           0.
     16,         22.5,           0.
     17,          24.,           0.
     18,         25.5,           0.
     19,          27.,           0.
     20,         28.5,           0.
** ... 421 like lines cut
*Element, type=CPS4
  1,   1,   2,  23,  22
  2,   2,   3,  24,  23
  3,   3,   4,  25,  24
  4,   4,   5,  26,  25
  5,   5,   6,  27,  26
  6,   6,   7,  28,  27
  7,   7,   8,  29,  28
  8,   8,   9,  30,  29
  9,   9,  10,  31,  30
 10,  10,  11,  32,  31
 11,  11,  12,  33,  32
 12,  12,  13,  34,  33
 13,  13,  14,  35,  34
 14,  14,  15,  36,  35
 15,  15,  16,  37,  36
 16,  16,  17,  38,  37
 17,  17,  18,  39,  38
 18,  18,  19,  40,  39
 19,  19,  20,  41,  40
 20,  20,  21,  42,  41
** ... 380 like lines cut
*Elset, elset=Set-1_alpha_0
 108, 109, 110, 111, 112, 113, 127, 128, 129, 130, 131, 132, 133, 134, 146, 147
 148, 149, 150, 151, 152, 153, 154, 155, 166, 167, 168, 169, 170, 171, 172, 173
 174, 175, 186, 187, 188, 189, 190, 191, 192, 193, 194, 195, 206, 207, 208, 209
 210, 211, 212, 213, 214, 215, 226, 227, 228, 229, 230, 231, 232, 233, 234, 235
 246, 247, 248, 249, 250, 251, 252, 253, 254, 255, 267, 268, 269, 270, 271, 272
 273, 274, 288, 289, 290, 291, 292, 293
*Elset, elset=Set-1_alpha_1
   1,   2,   3,   4,   5,   6,   7,   8,   9,  10,  11,  12,  13,  14,  15,  16
  17,  18,  19,  20,  21,  22,  23,  24,  25,  26,  27,  28,  29,  30,  31,  32
  33,  34,  35,  36,  37,  38,  39,  40,  41,  42,  43,  44,  45,  46,  47,  48
  49,  50,  51,  52,  53,  54,  55,  56,  57,  58,  59,  60,  61,  62,  63,  64
  65,  66,  67,  68,  69,  70,  71,  72,  73,  74,  75,  76,  77,  78,  79,  80
  81,  82,  83,  84,  85,  86,  87,  88,  89,  90,  91,  92,  93,  94,  95,  96
  97,  98,  99, 100, 101, 102, 103, 104, 105, 106, 107, 114, 115, 116, 117, 118
 119, 120, 121, 122, 123, 124, 125, 126, 135, 136, 137, 138, 139, 140, 141, 142
 143, 144, 145, 156, 157, 158, 159, 160, 161, 162, 163, 164, 165, 176, 177, 178
 179, 180, 181, 182, 183, 184, 185, 196, 197, 198, 199, 200, 201, 202, 203, 204
 205, 216, 217, 218, 219, 220, 221, 222, 223, 224, 225, 236, 237, 238, 239, 240
 241, 242, 243, 244, 245, 256, 257, 258, 259, 260, 261, 262, 263, 264, 265, 266
 275, 276, 277, 278, 279, 280, 281, 282, 283, 284, 285, 286, 287, 294, 295, 296
 297, 298, 299, 300, 301, 302, 303, 304, 305, 306, 307, 308, 309, 310, 311, 312
 313, 314, 315, 316, 317, 318, 319, 320, 321, 322, 323, 324, 325, 326, 327, 328
 329, 330, 331, 332, 333, 334, 335, 336, 337, 338, 339, 340, 341, 342, 343, 344
 345, 346, 347, 348, 349, 350, 351, 352, 353, 354, 355, 356, 357, 358, 359, 360
 361, 362, 363, 364, 365, 366, 367, 368, 369, 370, 371, 372, 373, 374, 375, 376
 377, 378, 379, 380, 381, 382, 383, 384, 385, 386, 387, 388, 389, 390, 391, 392
 393, 394, 395, 396, 397, 398, 399, 400
** Section: Section-2_alpha1
*Solid Section, elset=Set-1_alpha_1, material=Material-2_alph_1
0.1,
** Section: Section-1_alpha0
*Solid Section, elset=Set-1_alpha_0, material=Material-1_alpha_0
0.1,
*End Part
**  
**
** ASSEMBLY
**
*Assembly, name=Assembly
**  
*Instance, name="orphan mesh-1", part="orphan mesh"
*End Instance
**  
*Nset, nset=Set-1, instance="orphan mesh-1"
   1,  21,  22,  42,  43,  63,  64,  84,  85, 105, 106, 126, 127, 147, 148, 168
 169, 189, 190, 210, 211, 231, 232, 252, 253, 273, 274, 294, 295, 315, 316, 336
 337, 357, 358, 378, 379, 399, 400, 420, 421, 441
*Elset, elset=_Surf-1_S3, internal, instance="orphan mesh-1", generate
 381,  400,    1
*Surface, type=ELEMENT, name=Surf-1
_Surf-1_S3, S3
*End Assembly
** 
** MATERIALS
** 
*Material, name=Material-1_alpha_0
*Elastic
1.,0.
*Material, name=Material-2_alph_1
*Elastic
 2e+11, 0.3
** ----------------------------------------------------------------
** 
** STEP: Step-1
** 
*Step, name=Step-1, nlgeom=NO
*Static
1., 1., 1e-05, 1.
** 
** BOUNDARY CONDITIONS
** 
** Name: BC-1 Type: Displacement/Rotation
*Boundary
Set-1, 1, 1
Set-1, 2, 2
Set-1, 6, 6
** 
** LOADS
** 
** Name: Load-1   Type: Pressure
*Dsload
Surf-1, P, 1000.
** 
** OUTPUT REQUESTS
** 
*Restart, write, frequency=0
** 
** FIELD OUTPUT: F-Output-1
** 
*Output, field, variable=PRESELECT
** 
** HISTORY OUTPUT: H-Output-1
** 
*Output, history, variable=PRESELECT
*End Step
