*Heading
** Job name: Test_run Model name: Model-1
** Generated by: Abaqus/CAE Student Edition 2018
*Preprint, echo=NO, model=NO, history=NO, contact=NO
**
** PARTS
**
*Part, name=Orphan_mesh
*End Part
**  
**
** ASSEMBLY
**
*Assembly, name=Assembly
**  
*Instance, name=Orphan_Mesh_Assembly, part=Orphan_mesh
*Node
      1,           0.,           0.
      2,           3.,           0.
      3,           6.,           0.
      4,           9.,           0.
      5,          12.,           0.
      6,          15.,           0.
      7,          18.,           0.
      8,          21.,           0.
      9,          24.,           0.
     10,          27.,           0.
     11,          30.,           0.
     12,           0.,           3.
     13,           3.,           3.
     14,           6.,           3.
     15,           9.,           3.
     16,          12.,           3.
     17,          15.,           3.
     18,          18.,           3.
     19,          21.,           3.
     20,          24.,           3.
** ... 101 like lines cut
*Element, type=CPS4
  1,   1,   2,  13,  12
  2,   2,   3,  14,  13
  3,   3,   4,  15,  14
  4,   4,   5,  16,  15
  5,   5,   6,  17,  16
  6,   6,   7,  18,  17
  7,   7,   8,  19,  18
  8,   8,   9,  20,  19
  9,   9,  10,  21,  20
 10,  10,  11,  22,  21
 11,  12,  13,  24,  23
 12,  13,  14,  25,  24
 13,  14,  15,  26,  25
 14,  15,  16,  27,  26
 15,  16,  17,  28,  27
 16,  17,  18,  29,  28
 17,  18,  19,  30,  29
 18,  19,  20,  31,  30
 19,  20,  21,  32,  31
 20,  21,  22,  33,  32
** ... 80 like lines cut
*Elset, elset=Cut
 24, 25, 26, 27, 33, 34, 37, 38, 43, 48, 53, 58, 63, 64, 67, 68
 74, 75, 76, 77
*Elset, elset=Inside
   1,   2,   3,   4,   5,   6,   7,   8,   9,  10,  11,  12,  13,  14,  15,  16
  17,  18,  19,  20,  21,  22,  23,  28,  29,  30,  31,  32,  39,  40,  41,  42
  49,  50,  51,  52,  59,  60,  61,  62,  69,  70,  71,  72,  73,  78,  79,  80
  81,  82,  83,  84,  85,  86,  87,  88,  89,  90,  91,  92,  93,  94,  95,  96
  97,  98,  99, 100
*Elset, elset=Outside
 35, 36, 44, 45, 46, 47, 54, 55, 56, 57, 65, 66
** Section: Inside_Elements
*Solid Section, elset=Inside, material=Alpha-1
1.,
** Section: Cut_Elements
*Solid Section, elset=Cut, material=Alpha-0
1.,
** Section: Outside_Elements
*Solid Section, elset=Outside, material=Alpha-0
1.,
*End Instance
**  
*Nset, nset=BC_X_dirichlet, instance=Orphan_Mesh_Assembly, generate
  1,  11,   1
*Nset, nset=BC_Y_Nuemman, instance=Orphan_Mesh_Assembly, generate
 111,  121,    1
*Nset, nset=BC_Y_dirichlet, instance=Orphan_Mesh_Assembly, generate
   1,  111,   11
*Elset, elset=Elem_BC_Y_Nuemman, instance=Orphan_Mesh_Assembly, generate
  91,  100,    1
*Elset, elset=_Loading_edge_S3, internal, instance=Orphan_Mesh_Assembly, generate
  91,  100,    1
*Surface, type=ELEMENT, name=Loading_edge
_Loading_edge_S3, S3
*End Assembly
** 
** MATERIALS
** 
*Material, name=Alpha-0
*Elastic
 2e-05, 0.3
*Material, name=Alpha-1
*Elastic
200000., 0.3
** ----------------------------------------------------------------
** 
** STEP: Static_load_case
** 
*Step, name=Static_load_case, nlgeom=NO
*Static
1., 1., 1e-05, 1.
** 
** BOUNDARY CONDITIONS
** 
** Name: X_disp_fixed Type: Displacement/Rotation
*Boundary
BC_Y_dirichlet, 1, 1
** Name: Y_disp_fixed Type: Displacement/Rotation
*Boundary
BC_X_dirichlet, 2, 2
** 
** LOADS
** 
** Name: Surface_traction   Type: Surface traction
*Dsload
Loading_edge, TRVEC, 100., 0., 1., 0.
** 
** OUTPUT REQUESTS
** 
*Restart, write, frequency=0
** 
** FIELD OUTPUT: F-Output-1
** 
*Output, field, variable=PRESELECT
** 
** HISTORY OUTPUT: H-Output-1
** 
*Output, history, variable=PRESELECT
*End Step
